LAMMPS (27 Jun 2024)
Loaded 1 plugins from C:\Users\nande\AppData\Local\LAMMPS 64-bit 27Jun2024 with GUI\plugins
# LAMMPS input script for charged polymer mixture simulation

# Initialization
units           lj
atom_style      full       # Changed from 'molecular' to 'full' to include charges
boundary        p p p
read_data       C:\Users\nande\Desktop\mtp\ps_c_5_24.data
Reading data file ...
  orthogonal box = (0 0 0) to (32 32 32)
  reading atoms ...
  1632 atoms
  scanning bonds ...
  orthogonal box = (0 0 0) to (32 32 32)
  reading bonds ...
  1564 bonds
Finding 1-2 1-3 1-4 neighbors ...
     2 = max # of 1-2 neighbors
     2 = max # of 1-3 neighbors
     4 = max # of 1-4 neighbors
     6 = max # of special neighbors

# Force field definitions
bond_style      fene
bond_coeff      1 30.0 1.5 1.0 1.0 # k=30, r0=1.5, e=1, sigma=1

# Non-bonded interactions: LJ + Coulombic
pair_style      lj/cut/coul/long 2.5 10.0  # LJ cutoff 2.5, Coulombic cutoff 10.0
pair_modify     shift yes  # Shift LJ potential to 0 at cutoff

# Initial interaction parameters
pair_coeff      * * 1.0 1.0  # A-A interactions

# Coulombic solver (PPPM)
kspace_style    pppm 1.0e-4

dielectric      1.0        # Dielectric constant (default=1.0 for reduced units)

special_bonds   lj 0.0 1.0 1.0 coul 0.0 1.0 1.0  # Updated special_bonds for coulombic
Finding 1-2 1-3 1-4 neighbors ...
     2 = max # of 1-2 neighbors
     6 = max # of special neighbors

# Neighbor lists
neighbor        0.3 bin
neigh_modify    every 1 delay 0 check yes

# System groups
group           type_A type 1
816 atoms in group type_A
group           type_B type 2
816 atoms in group type_B

# Energy minimization
minimize        1.0e-4 1.0e-6 1000 10000

CITE-CITE-CITE-CITE-CITE-CITE-CITE-CITE-CITE-CITE-CITE-CITE-CITE

Your simulation uses code contributions which should be cited:

- Type Label Framework: https://doi.org/10.1021/acs.jpcb.3c08419

@Article{Gissinger24,
 author = {Jacob R. Gissinger, Ilia Nikiforov, Yaser Afshar, Brendon Waters, Moon-ki Choi, Daniel S. Karls, Alexander Stukowski, Wonpil Im, Hendrik Heinz, Axel Kohlmeyer, and Ellad B. Tadmor},
 title = {Type Label Framework for Bonded Force Fields in LAMMPS},
 journal = {J. Phys. Chem. B},
 year =    2024,
 volume =  128,
 number =  13,
 pages =   {3282â€“-3297}
}

CITE-CITE-CITE-CITE-CITE-CITE-CITE-CITE-CITE-CITE-CITE-CITE-CITE

PPPM initialization ...
  G vector (1/distance) = 0.27790445
  grid = 20 20 20
  stencil order = 5
  estimated absolute RMS force accuracy = 8.3030313e-05
  estimated relative force accuracy = 8.3030313e-05
  3d grid and FFT values/proc = 15625 8000
Generated 0 of 1 mixed pair_coeff terms from geometric mixing rule
Step          Temp          E_pair         E_mol          TotEng         Press
0   0              0.68531552     1561.3929      1562.0782      317.37737
Loop time of 0.934168 on 1 procs for 106 steps with 1632 atoms

Minimization stats:
  Stopping criterion = energy tolerance
  Energy initial, next-to-last, final =
  Force two-norm initial, final = 388036.88 45.266445
  Force max component initial, final = 33594.992 13.010393
  Final line search alpha, max atom move = 0.0046742205 0.060813448
  Iterations, force evaluations = 106 181

# Set up time integration
timestep        0.005

# Temperature control
variable        temp equal 1.0
fix             1 all langevin 1 1 100.0 699483
fix             2 all nve

# Output settings
thermo_style    custom step temp pe ke etotal press
thermo          1000   # Print every 1000 steps

# Equilibration run
dump            eq_dump all custom 1000 equilibration.lammpstrj id type q xu yu zu
dump_modify     eq_dump sort id

# Equilibration run
run             50000
PPPM initialization ...
  G vector (1/distance) = 0.27790445
  grid = 20 20 20
  stencil order = 5
  estimated absolute RMS force accuracy = 8.3030313e-05
  estimated relative force accuracy = 8.3030313e-05
  3d grid and FFT values/proc = 15625 8000
Generated 0 of 1 mixed pair_coeff terms from geometric mixing rule
Step          Temp          PotEng         KinEng         TotEng         Press
106   0              19.278365      0              19.278365     -0.026985853
Averages over the last 26 of 52 rows, steps 26000 to 50106:
Temp PotEng KinEng TotEng Press
1.24388 15.5998 1.86468 17.4645 -0.000654022
Loop time of 403.213 on 1 procs for 50000 steps with 1632 atoms

# Unfix and undump equilibration outputs
undump          eq_dump

reset_timestep 0

# Compute properties
compute         msd_all all msd com yes

# Extra compute for charged system
compute         charge_dist all property/atom q
compute         qtotal all reduce sum c_charge_dist
compute         pe_coul all pe kspace
compute         pe_pair all pe pair

# Output data files
print "Time MSD_all" file msd_all.dat
Time MSD_all

# Use fix ave/time to compute time-averaged values
fix             msd_avg_all all ave/time 100 1 100 c_msd_all[4] file msd_all.dat mode scalar

# Add charge tracking
fix             coulombic_energy all ave/time 100 1 100 c_pe_coul c_pe_pair c_qtotal file coulombic.dat mode scalar

# Production run with single dump file
dump            prod_dump all custom 1000 production.lammpstrj id type q xu yu zu
dump_modify     prod_dump sort id

# Run production
run             100000
PPPM initialization ...
  G vector (1/distance) = 0.27790445
  grid = 20 20 20
  stencil order = 5
  estimated absolute RMS force accuracy = 8.3030313e-05
  estimated relative force accuracy = 8.3030313e-05
  3d grid and FFT values/proc = 15625 8000
Generated 0 of 1 mixed pair_coeff terms from geometric mixing rule
Step          Temp          PotEng         KinEng         TotEng         Press
0   1.1338514      15.31917       1.699735       17.018905     -0.028550932
Averages over the last 51 of 101 rows, steps 50000 to 100000:
Temp PotEng KinEng TotEng Press
1.00125 14.8566 1.50096 16.3575 -0.000205438
Loop time of 1263.61 on 1 procs for 100000 steps with 1632 atoms

# Write final configuration
write_data      final_config.data
System init for write_data ...
PPPM initialization ...
  G vector (1/distance) = 0.27790445
  grid = 20 20 20
  stencil order = 5
  estimated absolute RMS force accuracy = 8.3030313e-05
  estimated relative force accuracy = 8.3030313e-05
  3d grid and FFT values/proc = 15625 8000
Generated 0 of 1 mixed pair_coeff terms from geometric mixing rule
