LAMMPS (27 Jun 2024)
Loaded 1 plugins from C:\Users\nande\AppData\Local\LAMMPS 64-bit 27Jun2024 with GUI\plugins
# LAMMPS input script for polymer mixture simulation

# Initialization
units           lj
atom_style      molecular
boundary        p p p
read_data       C:\Users\nande\Desktop\mtp\case_1_only_dn\data_files\polymer_system_8.data
Reading data file ...
  orthogonal box = (0 0 0) to (32 32 32)
  reading atoms ...
  480 atoms
  scanning bonds ...
  orthogonal box = (0 0 0) to (32 32 32)
  reading bonds ...
  420 bonds
Finding 1-2 1-3 1-4 neighbors ...
     2 = max # of 1-2 neighbors
     2 = max # of 1-3 neighbors
     4 = max # of 1-4 neighbors
     6 = max # of special neighbors

# Force field definitions
bond_style      fene
bond_coeff      1 30.0 1.5 1.0 1.0 # k=30, r0=1.5, e=1, sigma=1

# Non-bonded interactions
pair_style      lj/cut 2.5 # Cutoff distance
pair_modify     shift yes # Shift LJ potential to 0 at cutoff

# Initial interaction parameters (equilibration)
#pair_coeff I J epsilon sigma
pair_coeff      * * 1.0 1.0  # A-A interactions
# pair_coeff      2 2 1.0 1.0  # B-B interactions
# pair_coeff      1 2 1.0 1.0  # A-B interactions

special_bonds   lj 0.0 1.0 1.0 # Exclude LJ for 1-2
Finding 1-2 1-3 1-4 neighbors ...
     2 = max # of 1-2 neighbors
     2 = max # of 1-3 neighbors
     4 = max # of 1-4 neighbors
     6 = max # of special neighbors

# Neighbor lists
neighbor        0.3 bin
neigh_modify    every 1 delay 0 check yes

# System groups
group           type_A type 1
240 atoms in group type_A
group           type_B type 2
240 atoms in group type_B

# Energy minimization
minimize        1.0e-4 1.0e-6 1000 10000

CITE-CITE-CITE-CITE-CITE-CITE-CITE-CITE-CITE-CITE-CITE-CITE-CITE

Your simulation uses code contributions which should be cited:

- Type Label Framework: https://doi.org/10.1021/acs.jpcb.3c08419

@Article{Gissinger24,
 author = {Jacob R. Gissinger, Ilia Nikiforov, Yaser Afshar, Brendon Waters, Moon-ki Choi, Daniel S. Karls, Alexander Stukowski, Wonpil Im, Hendrik Heinz, Axel Kohlmeyer, and Ellad B. Tadmor},
 title = {Type Label Framework for Bonded Force Fields in LAMMPS},
 journal = {J. Phys. Chem. B},
 year =    2024,
 volume =  128,
 number =  13,
 pages =   {3282â€“-3297}
}

CITE-CITE-CITE-CITE-CITE-CITE-CITE-CITE-CITE-CITE-CITE-CITE-CITE

Generated 0 of 1 mixed pair_coeff terms from geometric mixing rule
Step          Temp          E_pair         E_mol          TotEng         Press
0   0              0              67.998216      67.998216     -2.9760977
Loop time of 0.006496 on 1 procs for 1 steps with 480 atoms

Minimization stats:
  Stopping criterion = linesearch alpha is zero
  Energy initial, next-to-last, final =
  Force two-norm initial, final = 5007.555 5007.555
  Force max component initial, final = 457.2 457.2
  Final line search alpha, max atom move = 2.0370135e-13 9.3132257e-11
  Iterations, force evaluations = 1 31

# Set up time integration
timestep        0.005

# Temperature control
variable        temp equal 2.0
#t=5
fix             1 all langevin 2 2 1.0 12345
fix             2 all nve

# Output settings
thermo_style    custom step temp pe etotal press vol
thermo          1000   # Print every 1000 steps (one timestep=0.005)

# Equilibration run
dump            eq_dump all custom 1000 equilibration.lammpstrj id type xu yu zu
dump_modify     eq_dump sort id

# Equilibration run
run             50000
Generated 0 of 1 mixed pair_coeff terms from geometric mixing rule
Step          Temp          PotEng         TotEng         Press          Volume
1   0              67.998216      67.998216     -2.9760977      32768
Averages over the last 26 of 52 rows, steps 26000 to 50001:
Temp PotEng TotEng Press Volume
2.02049 18.1023 21.1267 0.00128542 32768
Loop time of 3.25339 on 1 procs for 50000 steps with 480 atoms

# Unfix and undump equilibration outputs

undump          eq_dump

reset_timestep 0

# Change interaction parameters for production
# pair_coeff      1 2 0.5 1.0  # Modify A-B interactions

# #Compute properties
# compute         rg_A type_A gyration
# compute         rg_B type_B gyration
# compute         rg_all all gyration

# compute         msd_A type_A msd com yes
# compute         msd_B type_B msd com yes
compute         msd_all all msd com yes

# compute         RDF all rdf 50 1 1 2 2 1 2 #new

# # Start file output with headers
#  print "Time MSD_A" file msd_A.dat
#  print "Time MSD_B" file msd_B.dat

print "Time MSD_all" file msd_all.dat #new
Time MSD_all

# print "Time Rg_A" file rg_A.dat
# print "Time Rg_B" file rg_B.dat

# print "Time Rg_all" file rg_all.dat #new

# Use fix ave/time to compute time-averaged values for MSD and Rg
# fix msd_avg_A type_A ave/time 100 1 100 c_msd_A[4] file msd_A.dat mode scalar
 #fix msd_avg_B type_B ave/time 100 1 100 c_msd_B[4] file msd_B.dat mode scalar
 fix msd_avg_all all ave/time 100 1 100 c_msd_all[4]  file msd_all.dat mode scalar#new

# fix rg_avg_A type_A ave/time 100 1 100 c_rg_A file rg_A.dat
# fix rg_avg_B type_B ave/time 100 1 100 c_rg_B file rg_B.dat
# fix rg_avg_all all ave/time 100 1 100 c_rg_all file rg_all.dat  #new

# Production run with single dump file

dump prod_dump all custom 1000 production.lammpstrj id type xu yu zu
dump_modify prod_dump sort id

# RDF averaging for production
#fix rdf_avg_prod all ave/time 100 1 100 c_RDF[*] file rdf_production.avg mode vector

# Run production
run 100000
Generated 0 of 1 mixed pair_coeff terms from geometric mixing rule
Step          Temp          PotEng         TotEng         Press          Volume
0   2.0112883      18.095919      21.106567     -0.002765578    32768
Averages over the last 51 of 101 rows, steps 50000 to 100000:
Temp PotEng TotEng Press Volume
1.99969 18.0365 21.0298 0.00202053 32768
Loop time of 6.72454 on 1 procs for 100000 steps with 480 atoms

# Write final configuration
write_data final_config.data
System init for write_data ...
Generated 0 of 1 mixed pair_coeff terms from geometric mixing rule
